*SPEF "ieee 1481-1999"
*DESIGN "user_proj_IMPACT_HEAD"
*DATE "11:11:11 Fri 11 11, 1111"
*VENDOR "OpenRCX"
*PROGRAM "Parallel Extraction"
*VERSION "1.0"
*DESIGN_FLOW "NAME_SCOPE LOCAL" "PIN_CAP NONE"
*DIVIDER /
*DELIMITER :
*BUS_DELIMITER []
*T_UNIT 1 NS
*C_UNIT 1 PF
*R_UNIT 1 OHM
*L_UNIT 1 HENRY

*NAME_MAP
*1 East[0]
*2 East[10]
*3 East[11]
*4 East[12]
*5 East[13]
*6 East[14]
*7 East[15]
*8 East[16]
*9 East[17]
*10 East[18]
*11 East[19]
*12 East[1]
*13 East[20]
*14 East[21]
*15 East[22]
*16 East[23]
*17 East[24]
*18 East[25]
*19 East[26]
*20 East[27]
*21 East[28]
*22 East[29]
*23 East[2]
*24 East[30]
*25 East[31]
*26 East[3]
*27 East[4]
*28 East[5]
*29 East[6]
*30 East[7]
*31 East[8]
*32 East[9]
*33 South[0]
*34 South[10]
*35 South[11]
*36 South[12]
*37 South[13]
*38 South[14]
*39 South[15]
*40 South[16]
*41 South[17]
*42 South[18]
*43 South[19]
*44 South[1]
*45 South[20]
*46 South[21]
*47 South[22]
*48 South[23]
*49 South[24]
*50 South[25]
*51 South[26]
*52 South[27]
*53 South[28]
*54 South[29]
*55 South[2]
*56 South[30]
*57 South[31]
*58 South[3]
*59 South[4]
*60 South[5]
*61 South[6]
*62 South[7]
*63 South[8]
*64 South[9]
*65 West[0]
*66 West[10]
*67 West[11]
*68 West[12]
*69 West[13]
*70 West[14]
*71 West[15]
*72 West[16]
*73 West[17]
*74 West[18]
*75 West[19]
*76 West[1]
*77 West[20]
*78 West[21]
*79 West[22]
*80 West[23]
*81 West[24]
*82 West[25]
*83 West[26]
*84 West[27]
*85 West[28]
*86 West[29]
*87 West[2]
*88 West[30]
*89 West[31]
*90 West[3]
*91 West[4]
*92 West[5]
*93 West[6]
*94 West[7]
*95 West[8]
*96 West[9]
*97 clk
*100 _000_
*101 _001_
*102 _002_
*103 _003_
*104 _004_
*105 _005_
*106 _006_
*107 _007_
*108 _008_
*109 _009_
*110 _010_
*111 _011_
*112 _012_
*113 _013_
*114 _014_
*115 _015_
*116 _016_
*117 _017_
*118 _018_
*119 _019_
*120 _020_
*121 _021_
*122 _022_
*123 _023_
*124 _024_
*125 _025_
*126 _026_
*127 _027_
*128 _028_
*129 _029_
*130 _030_
*131 _031_
*132 _032_
*133 _033_
*134 _034_
*135 _035_
*136 _036_
*137 _037_
*138 _038_
*139 _039_
*140 _040_
*141 _041_
*142 _042_
*143 _043_
*144 _044_
*145 _045_
*146 _046_
*147 _047_
*148 _048_
*149 _049_
*150 _050_
*151 _051_
*152 _052_
*153 _053_
*154 _054_
*155 _055_
*156 _056_
*157 _057_
*158 _058_
*159 _059_
*160 _060_
*161 _061_
*162 _062_
*163 _063_
*164 _064_
*165 _065_
*166 _066_
*167 _067_
*168 _068_
*169 _069_
*170 _070_
*171 clknet_0_clk
*172 clknet_2_0__leaf_clk
*173 clknet_2_1__leaf_clk
*174 clknet_2_2__leaf_clk
*175 clknet_2_3__leaf_clk
*176 decoder01\.address\[0\]
*177 decoder01\.address\[10\]
*178 decoder01\.address\[11\]
*179 decoder01\.address\[12\]
*180 decoder01\.address\[13\]
*181 decoder01\.address\[14\]
*182 decoder01\.address\[15\]
*183 decoder01\.address\[16\]
*184 decoder01\.address\[17\]
*185 decoder01\.address\[18\]
*186 decoder01\.address\[19\]
*187 decoder01\.address\[1\]
*188 decoder01\.address\[20\]
*189 decoder01\.address\[21\]
*190 decoder01\.address\[22\]
*191 decoder01\.address\[23\]
*192 decoder01\.address\[24\]
*193 decoder01\.address\[25\]
*194 decoder01\.address\[26\]
*195 decoder01\.address\[27\]
*196 decoder01\.address\[28\]
*197 decoder01\.address\[29\]
*198 decoder01\.address\[2\]
*199 decoder01\.address\[30\]
*200 decoder01\.address\[31\]
*201 decoder01\.address\[3\]
*202 decoder01\.address\[4\]
*203 decoder01\.address\[5\]
*204 decoder01\.address\[6\]
*205 decoder01\.address\[7\]
*206 decoder01\.address\[8\]
*207 decoder01\.address\[9\]
*208 net1
*209 net2
*210 net3
*211 net4
*212 net5
*213 FILLER_0_0_109
*214 FILLER_0_0_113
*215 FILLER_0_0_125
*216 FILLER_0_0_137
*217 FILLER_0_0_141
*218 FILLER_0_0_15
*219 FILLER_0_0_153
*220 FILLER_0_0_165
*221 FILLER_0_0_169
*222 FILLER_0_0_181
*223 FILLER_0_0_193
*224 FILLER_0_0_197
*225 FILLER_0_0_209
*226 FILLER_0_0_221
*227 FILLER_0_0_225
*228 FILLER_0_0_237
*229 FILLER_0_0_249
*230 FILLER_0_0_253
*231 FILLER_0_0_265
*232 FILLER_0_0_27
*233 FILLER_0_0_277
*234 FILLER_0_0_281
*235 FILLER_0_0_29
*236 FILLER_0_0_293
*237 FILLER_0_0_3
*238 FILLER_0_0_305
*239 FILLER_0_0_309
*240 FILLER_0_0_321
*241 FILLER_0_0_333
*242 FILLER_0_0_337
*243 FILLER_0_0_349
*244 FILLER_0_0_361
*245 FILLER_0_0_365
*246 FILLER_0_0_377
*247 FILLER_0_0_389
*248 FILLER_0_0_393
*249 FILLER_0_0_405
*250 FILLER_0_0_41
*251 FILLER_0_0_417
*252 FILLER_0_0_421
*253 FILLER_0_0_433
*254 FILLER_0_0_445
*255 FILLER_0_0_449
*256 FILLER_0_0_461
*257 FILLER_0_0_473
*258 FILLER_0_0_477
*259 FILLER_0_0_489
*260 FILLER_0_0_501
*261 FILLER_0_0_505
*262 FILLER_0_0_517
*263 FILLER_0_0_529
*264 FILLER_0_0_53
*265 FILLER_0_0_533
*266 FILLER_0_0_545
*267 FILLER_0_0_557
*268 FILLER_0_0_561
*269 FILLER_0_0_57
*270 FILLER_0_0_573
*271 FILLER_0_0_585
*272 FILLER_0_0_589
*273 FILLER_0_0_601
*274 FILLER_0_0_613
*275 FILLER_0_0_617
*276 FILLER_0_0_629
*277 FILLER_0_0_641
*278 FILLER_0_0_645
*279 FILLER_0_0_657
*280 FILLER_0_0_669
*281 FILLER_0_0_673
*282 FILLER_0_0_685
*283 FILLER_0_0_69
*284 FILLER_0_0_697
*285 FILLER_0_0_701
*286 FILLER_0_0_713
*287 FILLER_0_0_725
*288 FILLER_0_0_729
*289 FILLER_0_0_741
*290 FILLER_0_0_753
*291 FILLER_0_0_757
*292 FILLER_0_0_769
*293 FILLER_0_0_781
*294 FILLER_0_0_785
*295 FILLER_0_0_797
*296 FILLER_0_0_809
*297 FILLER_0_0_81
*298 FILLER_0_0_813
*299 FILLER_0_0_825
*300 FILLER_0_0_837
*301 FILLER_0_0_841
*302 FILLER_0_0_85
*303 FILLER_0_0_853
*304 FILLER_0_0_865
*305 FILLER_0_0_869
*306 FILLER_0_0_881
*307 FILLER_0_0_893
*308 FILLER_0_0_897
*309 FILLER_0_0_909
*310 FILLER_0_0_921
*311 FILLER_0_0_925
*312 FILLER_0_0_937
*313 FILLER_0_0_941
*314 FILLER_0_0_97
*315 FILLER_0_100_109
*316 FILLER_0_100_121
*317 FILLER_0_100_133
*318 FILLER_0_100_139
*319 FILLER_0_100_141
*320 FILLER_0_100_15
*321 FILLER_0_100_153
*322 FILLER_0_100_165
*323 FILLER_0_100_177
*324 FILLER_0_100_189
*325 FILLER_0_100_195
*326 FILLER_0_100_197
*327 FILLER_0_100_209
*328 FILLER_0_100_221
*329 FILLER_0_100_233
*330 FILLER_0_100_245
*331 FILLER_0_100_251
*332 FILLER_0_100_253
*333 FILLER_0_100_265
*334 FILLER_0_100_27
*335 FILLER_0_100_277
*336 FILLER_0_100_289
*337 FILLER_0_100_29
*338 FILLER_0_100_3
*339 FILLER_0_100_301
*340 FILLER_0_100_307
*341 FILLER_0_100_309
*342 FILLER_0_100_321
*343 FILLER_0_100_333
*344 FILLER_0_100_345
*345 FILLER_0_100_357
*346 FILLER_0_100_363
*347 FILLER_0_100_365
*348 FILLER_0_100_377
*349 FILLER_0_100_389
*350 FILLER_0_100_401
*351 FILLER_0_100_41
*352 FILLER_0_100_413
*353 FILLER_0_100_419
*354 FILLER_0_100_421
*355 FILLER_0_100_433
*356 FILLER_0_100_445
*357 FILLER_0_100_457
*358 FILLER_0_100_469
*359 FILLER_0_100_475
*360 FILLER_0_100_477
*361 FILLER_0_100_489
*362 FILLER_0_100_501
*363 FILLER_0_100_513
*364 FILLER_0_100_525
*365 FILLER_0_100_53
*366 FILLER_0_100_531
*367 FILLER_0_100_533
*368 FILLER_0_100_545
*369 FILLER_0_100_557
*370 FILLER_0_100_569
*371 FILLER_0_100_581
*372 FILLER_0_100_587
*373 FILLER_0_100_589
*374 FILLER_0_100_601
*375 FILLER_0_100_613
*376 FILLER_0_100_625
*377 FILLER_0_100_637
*378 FILLER_0_100_643
*379 FILLER_0_100_645
*380 FILLER_0_100_65
*381 FILLER_0_100_657
*382 FILLER_0_100_669
*383 FILLER_0_100_681
*384 FILLER_0_100_693
*385 FILLER_0_100_699
*386 FILLER_0_100_701
*387 FILLER_0_100_713
*388 FILLER_0_100_725
*389 FILLER_0_100_737
*390 FILLER_0_100_749
*391 FILLER_0_100_755
*392 FILLER_0_100_757
*393 FILLER_0_100_769
*394 FILLER_0_100_77
*395 FILLER_0_100_781
*396 FILLER_0_100_793
*397 FILLER_0_100_805
*398 FILLER_0_100_811
*399 FILLER_0_100_813
*400 FILLER_0_100_825
*401 FILLER_0_100_83
*402 FILLER_0_100_837
*403 FILLER_0_100_849
*404 FILLER_0_100_85
*405 FILLER_0_100_861
*406 FILLER_0_100_867
*407 FILLER_0_100_869
*408 FILLER_0_100_881
*409 FILLER_0_100_893
*410 FILLER_0_100_905
*411 FILLER_0_100_917
*412 FILLER_0_100_923
*413 FILLER_0_100_925
*414 FILLER_0_100_937
*415 FILLER_0_100_949
*416 FILLER_0_100_97
*417 FILLER_0_101_105
*418 FILLER_0_101_111
*419 FILLER_0_101_113
*420 FILLER_0_101_125
*421 FILLER_0_101_137
*422 FILLER_0_101_149
*423 FILLER_0_101_15
*424 FILLER_0_101_161
*425 FILLER_0_101_167
*426 FILLER_0_101_169
*427 FILLER_0_101_181
*428 FILLER_0_101_193
*429 FILLER_0_101_205
*430 FILLER_0_101_217
*431 FILLER_0_101_223
*432 FILLER_0_101_225
*433 FILLER_0_101_237
*434 FILLER_0_101_249
*435 FILLER_0_101_261
*436 FILLER_0_101_27
*437 FILLER_0_101_273
*438 FILLER_0_101_279
*439 FILLER_0_101_281
*440 FILLER_0_101_293
*441 FILLER_0_101_3
*442 FILLER_0_101_305
*443 FILLER_0_101_317
*444 FILLER_0_101_329
*445 FILLER_0_101_335
*446 FILLER_0_101_337
*447 FILLER_0_101_349
*448 FILLER_0_101_361
*449 FILLER_0_101_373
*450 FILLER_0_101_385
*451 FILLER_0_101_39
*452 FILLER_0_101_391
*453 FILLER_0_101_393
*454 FILLER_0_101_405
*455 FILLER_0_101_417
*456 FILLER_0_101_429
*457 FILLER_0_101_441
*458 FILLER_0_101_447
*459 FILLER_0_101_449
*460 FILLER_0_101_461
*461 FILLER_0_101_473
*462 FILLER_0_101_485
*463 FILLER_0_101_497
*464 FILLER_0_101_503
*465 FILLER_0_101_505
*466 FILLER_0_101_51
*467 FILLER_0_101_517
*468 FILLER_0_101_529
*469 FILLER_0_101_541
*470 FILLER_0_101_55
*471 FILLER_0_101_553
*472 FILLER_0_101_559
*473 FILLER_0_101_561
*474 FILLER_0_101_57
*475 FILLER_0_101_573
*476 FILLER_0_101_585
*477 FILLER_0_101_597
*478 FILLER_0_101_609
*479 FILLER_0_101_615
*480 FILLER_0_101_617
*481 FILLER_0_101_629
*482 FILLER_0_101_641
*483 FILLER_0_101_653
*484 FILLER_0_101_665
*485 FILLER_0_101_671
*486 FILLER_0_101_673
*487 FILLER_0_101_685
*488 FILLER_0_101_69
*489 FILLER_0_101_697
*490 FILLER_0_101_709
*491 FILLER_0_101_721
*492 FILLER_0_101_727
*493 FILLER_0_101_729
*494 FILLER_0_101_741
*495 FILLER_0_101_753
*496 FILLER_0_101_765
*497 FILLER_0_101_777
*498 FILLER_0_101_783
*499 FILLER_0_101_785
*500 FILLER_0_101_797
*501 FILLER_0_101_809
*502 FILLER_0_101_81
*503 FILLER_0_101_821
*504 FILLER_0_101_833
*505 FILLER_0_101_839
*506 FILLER_0_101_841
*507 FILLER_0_101_853
*508 FILLER_0_101_865
*509 FILLER_0_101_877
*510 FILLER_0_101_889
*511 FILLER_0_101_895
*512 FILLER_0_101_897
*513 FILLER_0_101_909
*514 FILLER_0_101_921
*515 FILLER_0_101_93
*516 FILLER_0_101_933
*517 FILLER_0_101_945
*518 FILLER_0_102_109
*519 FILLER_0_102_121
*520 FILLER_0_102_133
*521 FILLER_0_102_139
*522 FILLER_0_102_141
*523 FILLER_0_102_15
*524 FILLER_0_102_153
*525 FILLER_0_102_165
*526 FILLER_0_102_177
*527 FILLER_0_102_189
*528 FILLER_0_102_195
*529 FILLER_0_102_197
*530 FILLER_0_102_209
*531 FILLER_0_102_221
*532 FILLER_0_102_233
*533 FILLER_0_102_245
*534 FILLER_0_102_251
*535 FILLER_0_102_253
*536 FILLER_0_102_265
*537 FILLER_0_102_27
*538 FILLER_0_102_277
*539 FILLER_0_102_289
*540 FILLER_0_102_29
*541 FILLER_0_102_3
*542 FILLER_0_102_301
*543 FILLER_0_102_307
*544 FILLER_0_102_309
*545 FILLER_0_102_321
*546 FILLER_0_102_333
*547 FILLER_0_102_345
*548 FILLER_0_102_357
*549 FILLER_0_102_363
*550 FILLER_0_102_365
*551 FILLER_0_102_377
*552 FILLER_0_102_389
*553 FILLER_0_102_401
*554 FILLER_0_102_41
*555 FILLER_0_102_413
*556 FILLER_0_102_419
*557 FILLER_0_102_421
*558 FILLER_0_102_433
*559 FILLER_0_102_445
*560 FILLER_0_102_457
*561 FILLER_0_102_469
*562 FILLER_0_102_475
*563 FILLER_0_102_477
*564 FILLER_0_102_489
*565 FILLER_0_102_501
*566 FILLER_0_102_513
*567 FILLER_0_102_525
*568 FILLER_0_102_53
*569 FILLER_0_102_531
*570 FILLER_0_102_533
*571 FILLER_0_102_545
*572 FILLER_0_102_557
*573 FILLER_0_102_569
*574 FILLER_0_102_581
*575 FILLER_0_102_587
*576 FILLER_0_102_589
*577 FILLER_0_102_601
*578 FILLER_0_102_613
*579 FILLER_0_102_625
*580 FILLER_0_102_637
*581 FILLER_0_102_643
*582 FILLER_0_102_645
*583 FILLER_0_102_65
*584 FILLER_0_102_657
*585 FILLER_0_102_669
*586 FILLER_0_102_681
*587 FILLER_0_102_693
*588 FILLER_0_102_699
*589 FILLER_0_102_701
*590 FILLER_0_102_713
*591 FILLER_0_102_725
*592 FILLER_0_102_737
*593 FILLER_0_102_749
*594 FILLER_0_102_755
*595 FILLER_0_102_757
*596 FILLER_0_102_769
*597 FILLER_0_102_77
*598 FILLER_0_102_781
*599 FILLER_0_102_793
*600 FILLER_0_102_805
*601 FILLER_0_102_811
*602 FILLER_0_102_813
*603 FILLER_0_102_825
*604 FILLER_0_102_83
*605 FILLER_0_102_837
*606 FILLER_0_102_849
*607 FILLER_0_102_85
*608 FILLER_0_102_861
*609 FILLER_0_102_867
*610 FILLER_0_102_869
*611 FILLER_0_102_881
*612 FILLER_0_102_893
*613 FILLER_0_102_905
*614 FILLER_0_102_917
*615 FILLER_0_102_923
*616 FILLER_0_102_925
*617 FILLER_0_102_937
*618 FILLER_0_102_949
*619 FILLER_0_102_97
*620 FILLER_0_103_105
*621 FILLER_0_103_111
*622 FILLER_0_103_113
*623 FILLER_0_103_125
*624 FILLER_0_103_137
*625 FILLER_0_103_149
*626 FILLER_0_103_15
*627 FILLER_0_103_161
*628 FILLER_0_103_167
*629 FILLER_0_103_169
*630 FILLER_0_103_181
*631 FILLER_0_103_193
*632 FILLER_0_103_205
*633 FILLER_0_103_217
*634 FILLER_0_103_223
*635 FILLER_0_103_225
*636 FILLER_0_103_237
*637 FILLER_0_103_249
*638 FILLER_0_103_261
*639 FILLER_0_103_27
*640 FILLER_0_103_273
*641 FILLER_0_103_279
*642 FILLER_0_103_281
*643 FILLER_0_103_293
*644 FILLER_0_103_3
*645 FILLER_0_103_305
*646 FILLER_0_103_317
*647 FILLER_0_103_329
*648 FILLER_0_103_335
*649 FILLER_0_103_337
*650 FILLER_0_103_349
*651 FILLER_0_103_361
*652 FILLER_0_103_373
*653 FILLER_0_103_385
*654 FILLER_0_103_39
*655 FILLER_0_103_391
*656 FILLER_0_103_393
*657 FILLER_0_103_405
*658 FILLER_0_103_417
*659 FILLER_0_103_429
*660 FILLER_0_103_441
*661 FILLER_0_103_447
*662 FILLER_0_103_449
*663 FILLER_0_103_461
*664 FILLER_0_103_473
*665 FILLER_0_103_485
*666 FILLER_0_103_497
*667 FILLER_0_103_503
*668 FILLER_0_103_505
*669 FILLER_0_103_51
*670 FILLER_0_103_517
*671 FILLER_0_103_529
*672 FILLER_0_103_541
*673 FILLER_0_103_55
*674 FILLER_0_103_553
*675 FILLER_0_103_559
*676 FILLER_0_103_561
*677 FILLER_0_103_57
*678 FILLER_0_103_573
*679 FILLER_0_103_585
*680 FILLER_0_103_597
*681 FILLER_0_103_609
*682 FILLER_0_103_615
*683 FILLER_0_103_617
*684 FILLER_0_103_629
*685 FILLER_0_103_641
*686 FILLER_0_103_653
*687 FILLER_0_103_665
*688 FILLER_0_103_671
*689 FILLER_0_103_673
*690 FILLER_0_103_685
*691 FILLER_0_103_69
*692 FILLER_0_103_697
*693 FILLER_0_103_709
*694 FILLER_0_103_721
*695 FILLER_0_103_727
*696 FILLER_0_103_729
*697 FILLER_0_103_741
*698 FILLER_0_103_753
*699 FILLER_0_103_765
*700 FILLER_0_103_777
*701 FILLER_0_103_783
*702 FILLER_0_103_785
*703 FILLER_0_103_797
*704 FILLER_0_103_809
*705 FILLER_0_103_81
*706 FILLER_0_103_821
*707 FILLER_0_103_833
*708 FILLER_0_103_839
*709 FILLER_0_103_841
*710 FILLER_0_103_853
*711 FILLER_0_103_865
*712 FILLER_0_103_877
*713 FILLER_0_103_889
*714 FILLER_0_103_895
*715 FILLER_0_103_897
*716 FILLER_0_103_909
*717 FILLER_0_103_921
*718 FILLER_0_103_93
*719 FILLER_0_103_933
*720 FILLER_0_103_945
*721 FILLER_0_104_109
*722 FILLER_0_104_121
*723 FILLER_0_104_133
*724 FILLER_0_104_139
*725 FILLER_0_104_141
*726 FILLER_0_104_15
*727 FILLER_0_104_153
*728 FILLER_0_104_165
*729 FILLER_0_104_177
*730 FILLER_0_104_189
*731 FILLER_0_104_195
*732 FILLER_0_104_197
*733 FILLER_0_104_209
*734 FILLER_0_104_221
*735 FILLER_0_104_233
*736 FILLER_0_104_245
*737 FILLER_0_104_251
*738 FILLER_0_104_253
*739 FILLER_0_104_265
*740 FILLER_0_104_27
*741 FILLER_0_104_277
*742 FILLER_0_104_289
*743 FILLER_0_104_29
*744 FILLER_0_104_3
*745 FILLER_0_104_301
*746 FILLER_0_104_307
*747 FILLER_0_104_309
*748 FILLER_0_104_321
*749 FILLER_0_104_333
*750 FILLER_0_104_345
*751 FILLER_0_104_357
*752 FILLER_0_104_363
*753 FILLER_0_104_365
*754 FILLER_0_104_377
*755 FILLER_0_104_389
*756 FILLER_0_104_401
*757 FILLER_0_104_41
*758 FILLER_0_104_413
*759 FILLER_0_104_419
*760 FILLER_0_104_421
*761 FILLER_0_104_433
*762 FILLER_0_104_445
*763 FILLER_0_104_457
*764 FILLER_0_104_469
*765 FILLER_0_104_475
*766 FILLER_0_104_477
*767 FILLER_0_104_489
*768 FILLER_0_104_501
*769 FILLER_0_104_513
*770 FILLER_0_104_525
*771 FILLER_0_104_53
*772 FILLER_0_104_531
*773 FILLER_0_104_533
*774 FILLER_0_104_545
*775 FILLER_0_104_557
*776 FILLER_0_104_569
*777 FILLER_0_104_581
*778 FILLER_0_104_587
*779 FILLER_0_104_589
*780 FILLER_0_104_601
*781 FILLER_0_104_613
*782 FILLER_0_104_625
*783 FILLER_0_104_637
*784 FILLER_0_104_643
*785 FILLER_0_104_645
*786 FILLER_0_104_65
*787 FILLER_0_104_657
*788 FILLER_0_104_669
*789 FILLER_0_104_681
*790 FILLER_0_104_693
*791 FILLER_0_104_699
*792 FILLER_0_104_701
*793 FILLER_0_104_713
*794 FILLER_0_104_725
*795 FILLER_0_104_737
*796 FILLER_0_104_749
*797 FILLER_0_104_755
*798 FILLER_0_104_757
*799 FILLER_0_104_769
*800 FILLER_0_104_77
*801 FILLER_0_104_781
*802 FILLER_0_104_793
*803 FILLER_0_104_805
*804 FILLER_0_104_811
*805 FILLER_0_104_813
*806 FILLER_0_104_825
*807 FILLER_0_104_83
*808 FILLER_0_104_837
*809 FILLER_0_104_849
*810 FILLER_0_104_85
*811 FILLER_0_104_861
*812 FILLER_0_104_867
*813 FILLER_0_104_869
*814 FILLER_0_104_881
*815 FILLER_0_104_893
*816 FILLER_0_104_905
*817 FILLER_0_104_917
*818 FILLER_0_104_923
*819 FILLER_0_104_925
*820 FILLER_0_104_937
*821 FILLER_0_104_949
*822 FILLER_0_104_97
*823 FILLER_0_105_105
*824 FILLER_0_105_111
*825 FILLER_0_105_113
*826 FILLER_0_105_125
*827 FILLER_0_105_137
*828 FILLER_0_105_149
*829 FILLER_0_105_15
*830 FILLER_0_105_161
*831 FILLER_0_105_167
*832 FILLER_0_105_169
*833 FILLER_0_105_181
*834 FILLER_0_105_193
*835 FILLER_0_105_205
*836 FILLER_0_105_217
*837 FILLER_0_105_223
*838 FILLER_0_105_225
*839 FILLER_0_105_237
*840 FILLER_0_105_249
*841 FILLER_0_105_261
*842 FILLER_0_105_27
*843 FILLER_0_105_273
*844 FILLER_0_105_279
*845 FILLER_0_105_281
*846 FILLER_0_105_293
*847 FILLER_0_105_3
*848 FILLER_0_105_305
*849 FILLER_0_105_317
*850 FILLER_0_105_329
*851 FILLER_0_105_335
*852 FILLER_0_105_337
*853 FILLER_0_105_349
*854 FILLER_0_105_361
*855 FILLER_0_105_373
*856 FILLER_0_105_385
*857 FILLER_0_105_39
*858 FILLER_0_105_391
*859 FILLER_0_105_393
*860 FILLER_0_105_405
*861 FILLER_0_105_417
*862 FILLER_0_105_429
*863 FILLER_0_105_441
*864 FILLER_0_105_447
*865 FILLER_0_105_449
*866 FILLER_0_105_461
*867 FILLER_0_105_473
*868 FILLER_0_105_485
*869 FILLER_0_105_497
*870 FILLER_0_105_503
*871 FILLER_0_105_505
*872 FILLER_0_105_51
*873 FILLER_0_105_517
*874 FILLER_0_105_529
*875 FILLER_0_105_541
*876 FILLER_0_105_55
*877 FILLER_0_105_553
*878 FILLER_0_105_559
*879 FILLER_0_105_561
*880 FILLER_0_105_57
*881 FILLER_0_105_573
*882 FILLER_0_105_585
*883 FILLER_0_105_597
*884 FILLER_0_105_609
*885 FILLER_0_105_615
*886 FILLER_0_105_617
*887 FILLER_0_105_629
*888 FILLER_0_105_641
*889 FILLER_0_105_653
*890 FILLER_0_105_665
*891 FILLER_0_105_671
*892 FILLER_0_105_673
*893 FILLER_0_105_685
*894 FILLER_0_105_69
*895 FILLER_0_105_697
*896 FILLER_0_105_709
*897 FILLER_0_105_721
*898 FILLER_0_105_727
*899 FILLER_0_105_729
*900 FILLER_0_105_741
*901 FILLER_0_105_753
*902 FILLER_0_105_765
*903 FILLER_0_105_777
*904 FILLER_0_105_783
*905 FILLER_0_105_785
*906 FILLER_0_105_797
*907 FILLER_0_105_809
*908 FILLER_0_105_81
*909 FILLER_0_105_821
*910 FILLER_0_105_833
*911 FILLER_0_105_839
*912 FILLER_0_105_841
*913 FILLER_0_105_853
*914 FILLER_0_105_865
*915 FILLER_0_105_877
*916 FILLER_0_105_889
*917 FILLER_0_105_895
*918 FILLER_0_105_897
*919 FILLER_0_105_909
*920 FILLER_0_105_921
*921 FILLER_0_105_93
*922 FILLER_0_105_933
*923 FILLER_0_105_945
*924 FILLER_0_106_109
*925 FILLER_0_106_121
*926 FILLER_0_106_133
*927 FILLER_0_106_139
*928 FILLER_0_106_141
*929 FILLER_0_106_15
*930 FILLER_0_106_153
*931 FILLER_0_106_165
*932 FILLER_0_106_177
*933 FILLER_0_106_189
*934 FILLER_0_106_195
*935 FILLER_0_106_197
*936 FILLER_0_106_209
*937 FILLER_0_106_221
*938 FILLER_0_106_233
*939 FILLER_0_106_245
*940 FILLER_0_106_251
*941 FILLER_0_106_253
*942 FILLER_0_106_265
*943 FILLER_0_106_27
*944 FILLER_0_106_277
*945 FILLER_0_106_289
*946 FILLER_0_106_29
*947 FILLER_0_106_3
*948 FILLER_0_106_301
*949 FILLER_0_106_307
*950 FILLER_0_106_309
*951 FILLER_0_106_321
*952 FILLER_0_106_333
*953 FILLER_0_106_345
*954 FILLER_0_106_357
*955 FILLER_0_106_363
*956 FILLER_0_106_365
*957 FILLER_0_106_377
*958 FILLER_0_106_389
*959 FILLER_0_106_401
*960 FILLER_0_106_41
*961 FILLER_0_106_413
*962 FILLER_0_106_419
*963 FILLER_0_106_421
*964 FILLER_0_106_433
*965 FILLER_0_106_445
*966 FILLER_0_106_457
*967 FILLER_0_106_469
*968 FILLER_0_106_475
*969 FILLER_0_106_477
*970 FILLER_0_106_489
*971 FILLER_0_106_501
*972 FILLER_0_106_513
*973 FILLER_0_106_525
*974 FILLER_0_106_53
*975 FILLER_0_106_531
*976 FILLER_0_106_533
*977 FILLER_0_106_545
*978 FILLER_0_106_557
*979 FILLER_0_106_569
*980 FILLER_0_106_581
*981 FILLER_0_106_587
*982 FILLER_0_106_589
*983 FILLER_0_106_601
*984 FILLER_0_106_613
*985 FILLER_0_106_625
*986 FILLER_0_106_637
*987 FILLER_0_106_643
*988 FILLER_0_106_645
*989 FILLER_0_106_65
*990 FILLER_0_106_657
*991 FILLER_0_106_669
*992 FILLER_0_106_681
*993 FILLER_0_106_693
*994 FILLER_0_106_699
*995 FILLER_0_106_701
*996 FILLER_0_106_713
*997 FILLER_0_106_725
*998 FILLER_0_106_737
*999 FILLER_0_106_749
*1000 FILLER_0_106_755
*1001 FILLER_0_106_757
*1002 FILLER_0_106_769
*1003 FILLER_0_106_77
*1004 FILLER_0_106_781
*1005 FILLER_0_106_793
*1006 FILLER_0_106_805
*1007 FILLER_0_106_811
*1008 FILLER_0_106_813
*1009 FILLER_0_106_825
*1010 FILLER_0_106_83
*1011 FILLER_0_106_837
*1012 FILLER_0_106_849
*1013 FILLER_0_106_85
*1014 FILLER_0_106_861
*1015 FILLER_0_106_867
*1016 FILLER_0_106_869
*1017 FILLER_0_106_881
*1018 FILLER_0_106_893
*1019 FILLER_0_106_905
*1020 FILLER_0_106_917
*1021 FILLER_0_106_923
*1022 FILLER_0_106_925
*1023 FILLER_0_106_937
*1024 FILLER_0_106_949
*1025 FILLER_0_106_97
*1026 FILLER_0_107_105
*1027 FILLER_0_107_111
*1028 FILLER_0_107_113
*1029 FILLER_0_107_125
*1030 FILLER_0_107_137
*1031 FILLER_0_107_149
*1032 FILLER_0_107_15
*1033 FILLER_0_107_161
*1034 FILLER_0_107_167
*1035 FILLER_0_107_169
*1036 FILLER_0_107_181
*1037 FILLER_0_107_193
*1038 FILLER_0_107_205
*1039 FILLER_0_107_217
*1040 FILLER_0_107_223
*1041 FILLER_0_107_225
*1042 FILLER_0_107_237
*1043 FILLER_0_107_249
*1044 FILLER_0_107_261
*1045 FILLER_0_107_27
*1046 FILLER_0_107_273
*1047 FILLER_0_107_279
*1048 FILLER_0_107_281
*1049 FILLER_0_107_293
*1050 FILLER_0_107_3
*1051 FILLER_0_107_305
*1052 FILLER_0_107_317
*1053 FILLER_0_107_329
*1054 FILLER_0_107_335
*1055 FILLER_0_107_337
*1056 FILLER_0_107_349
*1057 FILLER_0_107_361
*1058 FILLER_0_107_373
*1059 FILLER_0_107_385
*1060 FILLER_0_107_39
*1061 FILLER_0_107_391
*1062 FILLER_0_107_393
*1063 FILLER_0_107_405
*1064 FILLER_0_107_417
*1065 FILLER_0_107_429
*1066 FILLER_0_107_441
*1067 FILLER_0_107_447
*1068 FILLER_0_107_449
*1069 FILLER_0_107_461
*1070 FILLER_0_107_473
*1071 FILLER_0_107_485
*1072 FILLER_0_107_497
*1073 FILLER_0_107_503
*1074 FILLER_0_107_505
*1075 FILLER_0_107_51
*1076 FILLER_0_107_517
*1077 FILLER_0_107_529
*1078 FILLER_0_107_541
*1079 FILLER_0_107_55
*1080 FILLER_0_107_553
*1081 FILLER_0_107_559
*1082 FILLER_0_107_561
*1083 FILLER_0_107_57
*1084 FILLER_0_107_573
*1085 FILLER_0_107_585
*1086 FILLER_0_107_597
*1087 FILLER_0_107_609
*1088 FILLER_0_107_615
*1089 FILLER_0_107_617
*1090 FILLER_0_107_629
*1091 FILLER_0_107_641
*1092 FILLER_0_107_653
*1093 FILLER_0_107_665
*1094 FILLER_0_107_671
*1095 FILLER_0_107_673
*1096 FILLER_0_107_685
*1097 FILLER_0_107_69
*1098 FILLER_0_107_697
*1099 FILLER_0_107_709
*1100 FILLER_0_107_721
*1101 FILLER_0_107_727
*1102 FILLER_0_107_729
*1103 FILLER_0_107_741
*1104 FILLER_0_107_753
*1105 FILLER_0_107_765
*1106 FILLER_0_107_777
*1107 FILLER_0_107_783
*1108 FILLER_0_107_785
*1109 FILLER_0_107_797
*1110 FILLER_0_107_809
*1111 FILLER_0_107_81
*1112 FILLER_0_107_821
*1113 FILLER_0_107_833
*1114 FILLER_0_107_839
*1115 FILLER_0_107_841
*1116 FILLER_0_107_853
*1117 FILLER_0_107_865
*1118 FILLER_0_107_877
*1119 FILLER_0_107_889
*1120 FILLER_0_107_895
*1121 FILLER_0_107_897
*1122 FILLER_0_107_909
*1123 FILLER_0_107_921
*1124 FILLER_0_107_93
*1125 FILLER_0_107_933
*1126 FILLER_0_107_945
*1127 FILLER_0_108_109
*1128 FILLER_0_108_121
*1129 FILLER_0_108_133
*1130 FILLER_0_108_139
*1131 FILLER_0_108_141
*1132 FILLER_0_108_15
*1133 FILLER_0_108_153
*1134 FILLER_0_108_165
*1135 FILLER_0_108_177
*1136 FILLER_0_108_189
*1137 FILLER_0_108_195
*1138 FILLER_0_108_197
*1139 FILLER_0_108_209
*1140 FILLER_0_108_221
*1141 FILLER_0_108_233
*1142 FILLER_0_108_245
*1143 FILLER_0_108_251
*1144 FILLER_0_108_253
*1145 FILLER_0_108_265
*1146 FILLER_0_108_27
*1147 FILLER_0_108_277
*1148 FILLER_0_108_289
*1149 FILLER_0_108_29
*1150 FILLER_0_108_3
*1151 FILLER_0_108_301
*1152 FILLER_0_108_307
*1153 FILLER_0_108_309
*1154 FILLER_0_108_321
*1155 FILLER_0_108_333
*1156 FILLER_0_108_345
*1157 FILLER_0_108_357
*1158 FILLER_0_108_363
*1159 FILLER_0_108_365
*1160 FILLER_0_108_377
*1161 FILLER_0_108_389
*1162 FILLER_0_108_401
*1163 FILLER_0_108_41
*1164 FILLER_0_108_413
*1165 FILLER_0_108_419
*1166 FILLER_0_108_421
*1167 FILLER_0_108_433
*1168 FILLER_0_108_445
*1169 FILLER_0_108_457
*1170 FILLER_0_108_469
*1171 FILLER_0_108_475
*1172 FILLER_0_108_477
*1173 FILLER_0_108_489
*1174 FILLER_0_108_501
*1175 FILLER_0_108_513
*1176 FILLER_0_108_525
*1177 FILLER_0_108_53
*1178 FILLER_0_108_531
*1179 FILLER_0_108_533
*1180 FILLER_0_108_545
*1181 FILLER_0_108_557
*1182 FILLER_0_108_569
*1183 FILLER_0_108_581
*1184 FILLER_0_108_587
*1185 FILLER_0_108_589
*1186 FILLER_0_108_601
*1187 FILLER_0_108_613
*1188 FILLER_0_108_625
*1189 FILLER_0_108_637
*1190 FILLER_0_108_643
*1191 FILLER_0_108_645
*1192 FILLER_0_108_65
*1193 FILLER_0_108_657
*1194 FILLER_0_108_669
*1195 FILLER_0_108_681
*1196 FILLER_0_108_693
*1197 FILLER_0_108_699
*1198 FILLER_0_108_701
*1199 FILLER_0_108_713
*1200 FILLER_0_108_725
*1201 FILLER_0_108_737
*1202 FILLER_0_108_749
*1203 FILLER_0_108_755
*1204 FILLER_0_108_757
*1205 FILLER_0_108_769
*1206 FILLER_0_108_77
*1207 FILLER_0_108_781
*1208 FILLER_0_108_793
*1209 FILLER_0_108_805
*1210 FILLER_0_108_811
*1211 FILLER_0_108_813
*1212 FILLER_0_108_825
*1213 FILLER_0_108_83
*1214 FILLER_0_108_837
*1215 FILLER_0_108_849
*1216 FILLER_0_108_85
*1217 FILLER_0_108_861
*1218 FILLER_0_108_867
*1219 FILLER_0_108_869
*1220 FILLER_0_108_881
*1221 FILLER_0_108_893
*1222 FILLER_0_108_905
*1223 FILLER_0_108_917
*1224 FILLER_0_108_923
*1225 FILLER_0_108_925
*1226 FILLER_0_108_937
*1227 FILLER_0_108_949
*1228 FILLER_0_108_97
*1229 FILLER_0_109_105
*1230 FILLER_0_109_111
*1231 FILLER_0_109_113
*1232 FILLER_0_109_125
*1233 FILLER_0_109_137
*1234 FILLER_0_109_149
*1235 FILLER_0_109_15
*1236 FILLER_0_109_161
*1237 FILLER_0_109_167
*1238 FILLER_0_109_169
*1239 FILLER_0_109_181
*1240 FILLER_0_109_193
*1241 FILLER_0_109_205
*1242 FILLER_0_109_217
*1243 FILLER_0_109_223
*1244 FILLER_0_109_225
*1245 FILLER_0_109_237
*1246 FILLER_0_109_249
*1247 FILLER_0_109_261
*1248 FILLER_0_109_27
*1249 FILLER_0_109_273
*1250 FILLER_0_109_279
*1251 FILLER_0_109_281
*1252 FILLER_0_109_293
*1253 FILLER_0_109_3
*1254 FILLER_0_109_305
*1255 FILLER_0_109_317
*1256 FILLER_0_109_329
*1257 FILLER_0_109_335
*1258 FILLER_0_109_337
*1259 FILLER_0_109_349
*1260 FILLER_0_109_361
*1261 FILLER_0_109_373
*1262 FILLER_0_109_385
*1263 FILLER_0_109_39
*1264 FILLER_0_109_391
*1265 FILLER_0_109_393
*1266 FILLER_0_109_405
*1267 FILLER_0_109_417
*1268 FILLER_0_109_429
*1269 FILLER_0_109_441
*1270 FILLER_0_109_447
*1271 FILLER_0_109_449
*1272 FILLER_0_109_461
*1273 FILLER_0_109_473
*1274 FILLER_0_109_485
*1275 FILLER_0_109_497
*1276 FILLER_0_109_503
*1277 FILLER_0_109_505
*1278 FILLER_0_109_51
*1279 FILLER_0_109_517
*1280 FILLER_0_109_529
*1281 FILLER_0_109_541
*1282 FILLER_0_109_55
*1283 FILLER_0_109_553
*1284 FILLER_0_109_559
*1285 FILLER_0_109_561
*1286 FILLER_0_109_57
*1287 FILLER_0_109_573
*1288 FILLER_0_109_585
*1289 FILLER_0_109_597
*1290 FILLER_0_109_609
*1291 FILLER_0_109_615
*1292 FILLER_0_109_617
*1293 FILLER_0_109_629
*1294 FILLER_0_109_641
*1295 FILLER_0_109_653
*1296 FILLER_0_109_665
*1297 FILLER_0_109_671
*1298 FILLER_0_109_673
*1299 FILLER_0_109_685
*1300 FILLER_0_109_69
*1301 FILLER_0_109_697
*1302 FILLER_0_109_709
*1303 FILLER_0_109_721
*1304 FILLER_0_109_727
*1305 FILLER_0_109_729
*1306 FILLER_0_109_741
*1307 FILLER_0_109_753
*1308 FILLER_0_109_765
*1309 FILLER_0_109_777
*1310 FILLER_0_109_783
*1311 FILLER_0_109_785
*1312 FILLER_0_109_797
*1313 FILLER_0_109_809
*1314 FILLER_0_109_81
*1315 FILLER_0_109_821
*1316 FILLER_0_109_833
*1317 FILLER_0_109_839
*1318 FILLER_0_109_841
*1319 FILLER_0_109_853
*1320 FILLER_0_109_865
*1321 FILLER_0_109_877
*1322 FILLER_0_109_889
*1323 FILLER_0_109_895
*1324 FILLER_0_109_897
*1325 FILLER_0_109_909
*1326 FILLER_0_109_921
*1327 FILLER_0_109_93
*1328 FILLER_0_109_933
*1329 FILLER_0_109_945
*1330 FILLER_0_10_109
*1331 FILLER_0_10_121
*1332 FILLER_0_10_133
*1333 FILLER_0_10_139
*1334 FILLER_0_10_141
*1335 FILLER_0_10_15
*1336 FILLER_0_10_153
*1337 FILLER_0_10_165
*1338 FILLER_0_10_177
*1339 FILLER_0_10_189
*1340 FILLER_0_10_195
*1341 FILLER_0_10_197
*1342 FILLER_0_10_209
*1343 FILLER_0_10_221
*1344 FILLER_0_10_233
*1345 FILLER_0_10_245
*1346 FILLER_0_10_251
*1347 FILLER_0_10_253
*1348 FILLER_0_10_265
*1349 FILLER_0_10_27
*1350 FILLER_0_10_277
*1351 FILLER_0_10_289
*1352 FILLER_0_10_29
*1353 FILLER_0_10_3
*1354 FILLER_0_10_301
*1355 FILLER_0_10_307
*1356 FILLER_0_10_309
*1357 FILLER_0_10_321
*1358 FILLER_0_10_333
*1359 FILLER_0_10_345
*1360 FILLER_0_10_357
*1361 FILLER_0_10_363
*1362 FILLER_0_10_365
*1363 FILLER_0_10_377
*1364 FILLER_0_10_389
*1365 FILLER_0_10_401
*1366 FILLER_0_10_41
*1367 FILLER_0_10_413
*1368 FILLER_0_10_419
*1369 FILLER_0_10_421
*1370 FILLER_0_10_433
*1371 FILLER_0_10_445
*1372 FILLER_0_10_457
*1373 FILLER_0_10_469
*1374 FILLER_0_10_475
*1375 FILLER_0_10_477
*1376 FILLER_0_10_489
*1377 FILLER_0_10_501
*1378 FILLER_0_10_513
*1379 FILLER_0_10_525
*1380 FILLER_0_10_53
*1381 FILLER_0_10_531
*1382 FILLER_0_10_533
*1383 FILLER_0_10_545
*1384 FILLER_0_10_557
*1385 FILLER_0_10_569
*1386 FILLER_0_10_581
*1387 FILLER_0_10_587
*1388 FILLER_0_10_589
*1389 FILLER_0_10_601
*1390 FILLER_0_10_613
*1391 FILLER_0_10_625
*1392 FILLER_0_10_637
*1393 FILLER_0_10_643
*1394 FILLER_0_10_645
*1395 FILLER_0_10_65
*1396 FILLER_0_10_657
*1397 FILLER_0_10_669
*1398 FILLER_0_10_681
*1399 FILLER_0_10_693
*1400 FILLER_0_10_699
*1401 FILLER_0_10_701
*1402 FILLER_0_10_713
*1403 FILLER_0_10_725
*1404 FILLER_0_10_737
*1405 FILLER_0_10_749
*1406 FILLER_0_10_755
*1407 FILLER_0_10_757
*1408 FILLER_0_10_769
*1409 FILLER_0_10_77
*1410 FILLER_0_10_781
*1411 FILLER_0_10_793
*1412 FILLER_0_10_805
*1413 FILLER_0_10_811
*1414 FILLER_0_10_813
*1415 FILLER_0_10_825
*1416 FILLER_0_10_83
*1417 FILLER_0_10_837
*1418 FILLER_0_10_849