*SPEF "ieee 1481-1999"
*DESIGN "user_project_wrapper"
*DATE "11:11:11 Fri 11 11, 1111"
*VENDOR "OpenRCX"
*PROGRAM "Parallel Extraction"
*VERSION "1.0"
*DESIGN_FLOW "NAME_SCOPE LOCAL" "PIN_CAP NONE"
*DIVIDER /
*DELIMITER :
*BUS_DELIMITER []
*T_UNIT 1 NS
*C_UNIT 1 PF
*R_UNIT 1 OHM
*L_UNIT 1 HENRY

*NAME_MAP
*1 io_in[0]
*2 io_in[10]
*3 io_in[11]
*4 io_in[12]
*5 io_in[13]
*6 io_in[14]
*7 io_in[15]
*8 io_in[16]
*9 io_in[17]
*10 io_in[18]
*11 io_in[19]
*12 io_in[1]
*13 io_in[20]
*14 io_in[21]
*15 io_in[22]
*16 io_in[23]
*17 io_in[24]
*18 io_in[25]
*19 io_in[26]
*20 io_in[27]
*21 io_in[28]
*22 io_in[29]
*23 io_in[2]
*24 io_in[30]
*25 io_in[31]
*26 io_in[32]
*27 io_in[33]
*28 io_in[34]
*29 io_in[35]
*30 io_in[36]
*31 io_in[37]
*32 io_in[3]
*33 io_in[4]
*34 io_in[5]
*35 io_in[6]
*36 io_in[7]
*37 io_in[8]
*38 io_in[9]
*39 io_oeb[0]
*40 io_oeb[10]
*41 io_oeb[11]
*42 io_oeb[12]
*43 io_oeb[13]
*44 io_oeb[14]
*45 io_oeb[15]
*46 io_oeb[16]
*47 io_oeb[17]
*48 io_oeb[18]
*49 io_oeb[19]
*50 io_oeb[1]
*51 io_oeb[20]
*52 io_oeb[21]
*53 io_oeb[22]
*54 io_oeb[23]
*55 io_oeb[24]
*56 io_oeb[25]
*57 io_oeb[26]
*58 io_oeb[27]
*59 io_oeb[28]
*60 io_oeb[29]
*61 io_oeb[2]
*62 io_oeb[30]
*63 io_oeb[31]
*64 io_oeb[32]
*65 io_oeb[33]
*66 io_oeb[34]
*67 io_oeb[35]
*68 io_oeb[36]
*69 io_oeb[37]
*70 io_oeb[3]
*71 io_oeb[4]
*72 io_oeb[5]
*73 io_oeb[6]
*74 io_oeb[7]
*75 io_oeb[8]
*76 io_oeb[9]
*77 io_out[0]
*78 io_out[10]
*79 io_out[11]
*80 io_out[12]
*81 io_out[13]
*82 io_out[14]
*83 io_out[15]
*84 io_out[16]
*85 io_out[17]
*86 io_out[18]
*87 io_out[19]
*88 io_out[1]
*89 io_out[20]
*90 io_out[21]
*91 io_out[22]
*92 io_out[23]
*93 io_out[24]
*94 io_out[25]
*95 io_out[26]
*96 io_out[27]
*97 io_out[28]
*98 io_out[29]
*99 io_out[2]
*100 io_out[30]
*101 io_out[31]
*102 io_out[32]
*103 io_out[33]
*104 io_out[34]
*105 io_out[35]
*106 io_out[36]
*107 io_out[37]
*108 io_out[3]
*109 io_out[4]
*110 io_out[5]
*111 io_out[6]
*112 io_out[7]
*113 io_out[8]
*114 io_out[9]
*115 la_data_in[0]
*116 la_data_in[100]
*117 la_data_in[101]
*118 la_data_in[102]
*119 la_data_in[103]
*120 la_data_in[104]
*121 la_data_in[105]
*122 la_data_in[106]
*123 la_data_in[107]
*124 la_data_in[108]
*125 la_data_in[109]
*126 la_data_in[10]
*127 la_data_in[110]
*128 la_data_in[111]
*129 la_data_in[112]
*130 la_data_in[113]
*131 la_data_in[114]
*132 la_data_in[115]
*133 la_data_in[116]
*134 la_data_in[117]
*135 la_data_in[118]
*136 la_data_in[119]
*137 la_data_in[11]
*138 la_data_in[120]
*139 la_data_in[121]
*140 la_data_in[122]
*141 la_data_in[123]
*142 la_data_in[124]
*143 la_data_in[125]
*144 la_data_in[126]
*145 la_data_in[127]
*146 la_data_in[12]
*147 la_data_in[13]
*148 la_data_in[14]
*149 la_data_in[15]
*150 la_data_in[16]
*151 la_data_in[17]
*152 la_data_in[18]
*153 la_data_in[19]
*154 la_data_in[1]
*155 la_data_in[20]
*156 la_data_in[21]
*157 la_data_in[22]
*158 la_data_in[23]
*159 la_data_in[24]
*160 la_data_in[25]
*161 la_data_in[26]
*162 la_data_in[27]
*163 la_data_in[28]
*164 la_data_in[29]
*165 la_data_in[2]
*166 la_data_in[30]
*167 la_data_in[31]
*168 la_data_in[32]
*169 la_data_in[33]
*170 la_data_in[34]
*171 la_data_in[35]
*172 la_data_in[36]
*173 la_data_in[37]
*174 la_data_in[38]
*175 la_data_in[39]
*176 la_data_in[3]
*177 la_data_in[40]
*178 la_data_in[41]
*179 la_data_in[42]
*180 la_data_in[43]
*181 la_data_in[44]
*182 la_data_in[45]
*183 la_data_in[46]
*184 la_data_in[47]
*185 la_data_in[48]
*186 la_data_in[49]
*187 la_data_in[4]
*188 la_data_in[50]
*189 la_data_in[51]
*190 la_data_in[52]
*191 la_data_in[53]
*192 la_data_in[54]
*193 la_data_in[55]
*194 la_data_in[56]
*195 la_data_in[57]
*196 la_data_in[58]
*197 la_data_in[59]
*198 la_data_in[5]
*199 la_data_in[60]
*200 la_data_in[61]
*201 la_data_in[62]
*202 la_data_in[63]
*203 la_data_in[64]
*204 la_data_in[65]
*205 la_data_in[66]
*206 la_data_in[67]
*207 la_data_in[68]
*208 la_data_in[69]
*209 la_data_in[6]
*210 la_data_in[70]
*211 la_data_in[71]
*212 la_data_in[72]
*213 la_data_in[73]
*214 la_data_in[74]
*215 la_data_in[75]
*216 la_data_in[76]
*217 la_data_in[77]
*218 la_data_in[78]
*219 la_data_in[79]
*220 la_data_in[7]
*221 la_data_in[80]
*222 la_data_in[81]
*223 la_data_in[82]
*224 la_data_in[83]
*225 la_data_in[84]
*226 la_data_in[85]
*227 la_data_in[86]
*228 la_data_in[87]
*229 la_data_in[88]
*230 la_data_in[89]
*231 la_data_in[8]
*232 la_data_in[90]
*233 la_data_in[91]
*234 la_data_in[92]
*235 la_data_in[93]
*236 la_data_in[94]
*237 la_data_in[95]
*238 la_data_in[96]
*239 la_data_in[97]
*240 la_data_in[98]
*241 la_data_in[99]
*242 la_data_in[9]
*243 la_data_out[0]
*244 la_data_out[100]
*245 la_data_out[101]
*246 la_data_out[102]
*247 la_data_out[103]
*248 la_data_out[104]
*249 la_data_out[105]
*250 la_data_out[106]
*251 la_data_out[107]
*252 la_data_out[108]
*253 la_data_out[109]
*254 la_data_out[10]
*255 la_data_out[110]
*256 la_data_out[111]
*257 la_data_out[112]
*258 la_data_out[113]
*259 la_data_out[114]
*260 la_data_out[115]
*261 la_data_out[116]
*262 la_data_out[117]
*263 la_data_out[118]
*264 la_data_out[119]
*265 la_data_out[11]
*266 la_data_out[120]
*267 la_data_out[121]
*268 la_data_out[122]
*269 la_data_out[123]
*270 la_data_out[124]
*271 la_data_out[125]
*272 la_data_out[126]
*273 la_data_out[127]
*274 la_data_out[12]
*275 la_data_out[13]
*276 la_data_out[14]
*277 la_data_out[15]
*278 la_data_out[16]
*279 la_data_out[17]
*280 la_data_out[18]
*281 la_data_out[19]
*282 la_data_out[1]
*283 la_data_out[20]
*284 la_data_out[21]
*285 la_data_out[22]
*286 la_data_out[23]
*287 la_data_out[24]
*288 la_data_out[25]
*289 la_data_out[26]
*290 la_data_out[27]
*291 la_data_out[28]
*292 la_data_out[29]
*293 la_data_out[2]
*294 la_data_out[30]
*295 la_data_out[31]
*296 la_data_out[32]
*297 la_data_out[33]
*298 la_data_out[34]
*299 la_data_out[35]
*300 la_data_out[36]
*301 la_data_out[37]
*302 la_data_out[38]
*303 la_data_out[39]
*304 la_data_out[3]
*305 la_data_out[40]
*306 la_data_out[41]
*307 la_data_out[42]
*308 la_data_out[43]
*309 la_data_out[44]
*310 la_data_out[45]
*311 la_data_out[46]
*312 la_data_out[47]
*313 la_data_out[48]
*314 la_data_out[49]
*315 la_data_out[4]
*316 la_data_out[50]
*317 la_data_out[51]
*318 la_data_out[52]
*319 la_data_out[53]
*320 la_data_out[54]
*321 la_data_out[55]
*322 la_data_out[56]
*323 la_data_out[57]
*324 la_data_out[58]
*325 la_data_out[59]
*326 la_data_out[5]
*327 la_data_out[60]
*328 la_data_out[61]
*329 la_data_out[62]
*330 la_data_out[63]
*331 la_data_out[64]
*332 la_data_out[65]
*333 la_data_out[66]
*334 la_data_out[67]
*335 la_data_out[68]
*336 la_data_out[69]
*337 la_data_out[6]
*338 la_data_out[70]
*339 la_data_out[71]
*340 la_data_out[72]
*341 la_data_out[73]
*342 la_data_out[74]
*343 la_data_out[75]
*344 la_data_out[76]
*345 la_data_out[77]
*346 la_data_out[78]
*347 la_data_out[79]
*348 la_data_out[7]
*349 la_data_out[80]
*350 la_data_out[81]
*351 la_data_out[82]
*352 la_data_out[83]
*353 la_data_out[84]
*354 la_data_out[85]
*355 la_data_out[86]
*356 la_data_out[87]
*357 la_data_out[88]
*358 la_data_out[89]
*359 la_data_out[8]
*360 la_data_out[90]
*361 la_data_out[91]
*362 la_data_out[92]
*363 la_data_out[93]
*364 la_data_out[94]
*365 la_data_out[95]
*366 la_data_out[96]
*367 la_data_out[97]
*368 la_data_out[98]
*369 la_data_out[99]
*370 la_data_out[9]
*371 la_oenb[0]
*372 la_oenb[100]
*373 la_oenb[101]
*374 la_oenb[102]
*375 la_oenb[103]
*376 la_oenb[104]
*377 la_oenb[105]
*378 la_oenb[106]
*379 la_oenb[107]
*380 la_oenb[108]
*381 la_oenb[109]
*382 la_oenb[10]
*383 la_oenb[110]
*384 la_oenb[111]
*385 la_oenb[112]
*386 la_oenb[113]
*387 la_oenb[114]
*388 la_oenb[115]
*389 la_oenb[116]
*390 la_oenb[117]
*391 la_oenb[118]
*392 la_oenb[119]
*393 la_oenb[11]
*394 la_oenb[120]
*395 la_oenb[121]
*396 la_oenb[122]
*397 la_oenb[123]
*398 la_oenb[124]
*399 la_oenb[125]
*400 la_oenb[126]
*401 la_oenb[127]
*402 la_oenb[12]
*403 la_oenb[13]
*404 la_oenb[14]
*405 la_oenb[15]
*406 la_oenb[16]
*407 la_oenb[17]
*408 la_oenb[18]
*409 la_oenb[19]
*410 la_oenb[1]
*411 la_oenb[20]
*412 la_oenb[21]
*413 la_oenb[22]
*414 la_oenb[23]
*415 la_oenb[24]
*416 la_oenb[25]
*417 la_oenb[26]
*418 la_oenb[27]
*419 la_oenb[28]
*420 la_oenb[29]
*421 la_oenb[2]
*422 la_oenb[30]
*423 la_oenb[31]
*424 la_oenb[32]
*425 la_oenb[33]
*426 la_oenb[34]
*427 la_oenb[35]
*428 la_oenb[36]
*429 la_oenb[37]
*430 la_oenb[38]
*431 la_oenb[39]
*432 la_oenb[3]
*433 la_oenb[40]
*434 la_oenb[41]
*435 la_oenb[42]
*436 la_oenb[43]
*437 la_oenb[44]
*438 la_oenb[45]
*439 la_oenb[46]
*440 la_oenb[47]
*441 la_oenb[48]
*442 la_oenb[49]
*443 la_oenb[4]
*444 la_oenb[50]
*445 la_oenb[51]
*446 la_oenb[52]
*447 la_oenb[53]
*448 la_oenb[54]
*449 la_oenb[55]
*450 la_oenb[56]
*451 la_oenb[57]
*452 la_oenb[58]
*453 la_oenb[59]
*454 la_oenb[5]
*455 la_oenb[60]
*456 la_oenb[61]
*457 la_oenb[62]
*458 la_oenb[63]
*459 la_oenb[64]
*460 la_oenb[65]
*461 la_oenb[66]
*462 la_oenb[67]
*463 la_oenb[68]
*464 la_oenb[69]
*465 la_oenb[6]
*466 la_oenb[70]
*467 la_oenb[71]
*468 la_oenb[72]
*469 la_oenb[73]
*470 la_oenb[74]
*471 la_oenb[75]
*472 la_oenb[76]
*473 la_oenb[77]
*474 la_oenb[78]
*475 la_oenb[79]
*476 la_oenb[7]
*477 la_oenb[80]
*478 la_oenb[81]
*479 la_oenb[82]
*480 la_oenb[83]
*481 la_oenb[84]
*482 la_oenb[85]
*483 la_oenb[86]
*484 la_oenb[87]
*485 la_oenb[88]
*486 la_oenb[89]
*487 la_oenb[8]
*488 la_oenb[90]
*489 la_oenb[91]
*490 la_oenb[92]
*491 la_oenb[93]
*492 la_oenb[94]
*493 la_oenb[95]
*494 la_oenb[96]
*495 la_oenb[97]
*496 la_oenb[98]
*497 la_oenb[99]
*498 la_oenb[9]
*507 wb_clk_i
*508 wb_rst_i
*509 wbs_ack_o
*510 wbs_adr_i[0]
*511 wbs_adr_i[10]
*512 wbs_adr_i[11]
*513 wbs_adr_i[12]
*514 wbs_adr_i[13]
*515 wbs_adr_i[14]
*516 wbs_adr_i[15]
*517 wbs_adr_i[16]
*518 wbs_adr_i[17]
*519 wbs_adr_i[18]
*520 wbs_adr_i[19]
*521 wbs_adr_i[1]
*522 wbs_adr_i[20]
*523 wbs_adr_i[21]
*524 wbs_adr_i[22]
*525 wbs_adr_i[23]
*526 wbs_adr_i[24]
*527 wbs_adr_i[25]
*528 wbs_adr_i[26]
*529 wbs_adr_i[27]
*530 wbs_adr_i[28]
*531 wbs_adr_i[29]
*532 wbs_adr_i[2]
*533 wbs_adr_i[30]
*534 wbs_adr_i[31]
*535 wbs_adr_i[3]
*536 wbs_adr_i[4]
*537 wbs_adr_i[5]
*538 wbs_adr_i[6]
*539 wbs_adr_i[7]
*540 wbs_adr_i[8]
*541 wbs_adr_i[9]
*542 wbs_cyc_i
*543 wbs_dat_i[0]
*544 wbs_dat_i[10]
*545 wbs_dat_i[11]
*546 wbs_dat_i[12]
*547 wbs_dat_i[13]
*548 wbs_dat_i[14]
*549 wbs_dat_i[15]
*550 wbs_dat_i[16]
*551 wbs_dat_i[17]
*552 wbs_dat_i[18]
*553 wbs_dat_i[19]
*554 wbs_dat_i[1]
*555 wbs_dat_i[20]
*556 wbs_dat_i[21]
*557 wbs_dat_i[22]
*558 wbs_dat_i[23]
*559 wbs_dat_i[24]
*560 wbs_dat_i[25]
*561 wbs_dat_i[26]
*562 wbs_dat_i[27]
*563 wbs_dat_i[28]
*564 wbs_dat_i[29]
*565 wbs_dat_i[2]
*566 wbs_dat_i[30]
*567 wbs_dat_i[31]
*568 wbs_dat_i[3]
*569 wbs_dat_i[4]
*570 wbs_dat_i[5]
*571 wbs_dat_i[6]
*572 wbs_dat_i[7]
*573 wbs_dat_i[8]
*574 wbs_dat_i[9]
*575 wbs_dat_o[0]
*576 wbs_dat_o[10]
*577 wbs_dat_o[11]
*578 wbs_dat_o[12]
*579 wbs_dat_o[13]
*580 wbs_dat_o[14]
*581 wbs_dat_o[15]
*582 wbs_dat_o[16]
*583 wbs_dat_o[17]
*584 wbs_dat_o[18]
*585 wbs_dat_o[19]
*586 wbs_dat_o[1]
*587 wbs_dat_o[20]
*588 wbs_dat_o[21]
*589 wbs_dat_o[22]
*590 wbs_dat_o[23]
*591 wbs_dat_o[24]
*592 wbs_dat_o[25]
*593 wbs_dat_o[26]
*594 wbs_dat_o[27]
*595 wbs_dat_o[28]
*596 wbs_dat_o[29]
*597 wbs_dat_o[2]
*598 wbs_dat_o[30]
*599 wbs_dat_o[31]
*600 wbs_dat_o[3]
*601 wbs_dat_o[4]
*602 wbs_dat_o[5]
*603 wbs_dat_o[6]
*604 wbs_dat_o[7]
*605 wbs_dat_o[8]
*606 wbs_dat_o[9]
*607 wbs_sel_i[0]
*608 wbs_sel_i[1]
*609 wbs_sel_i[2]
*610 wbs_sel_i[3]
*611 wbs_stb_i
*612 wbs_we_i
*613 mprj

*PORTS
io_in[0] I
io_in[10] I
io_in[11] I
io_in[12] I
io_in[13] I
io_in[14] I
io_in[15] I
io_in[16] I
io_in[17] I
io_in[18] I
io_in[19] I
io_in[1] I
io_in[20] I
io_in[21] I
io_in[22] I
io_in[23] I
io_in[24] I
io_in[25] I
io_in[26] I
io_in[27] I
io_in[28] I
io_in[29] I
io_in[2] I
io_in[30] I
io_in[31] I
io_in[32] I
io_in[33] I
io_in[34] I
io_in[35] I
io_in[36] I
io_in[37] I
io_in[3] I
io_in[4] I
io_in[5] I
io_in[6] I
io_in[7] I
io_in[8] I
io_in[9] I
io_oeb[0] O
io_oeb[10] O
io_oeb[11] O
io_oeb[12] O
io_oeb[13] O
io_oeb[14] O
io_oeb[15] O
io_oeb[16] O
io_oeb[17] O
io_oeb[18] O
io_oeb[19] O
io_oeb[1] O
io_oeb[20] O
io_oeb[21] O
io_oeb[22] O
io_oeb[23] O
io_oeb[24] O
io_oeb[25] O
io_oeb[26] O
io_oeb[27] O
io_oeb[28] O
io_oeb[29] O
io_oeb[2] O
io_oeb[30] O
io_oeb[31] O
io_oeb[32] O
io_oeb[33] O
io_oeb[34] O
io_oeb[35] O
io_oeb[36] O
io_oeb[37] O
io_oeb[3] O
io_oeb[4] O
io_oeb[5] O
io_oeb[6] O
io_oeb[7] O
io_oeb[8] O
io_oeb[9] O
io_out[0] O
io_out[10] O
io_out[11] O
io_out[12] O
io_out[13] O
io_out[14] O
io_out[15] O
io_out[16] O
io_out[17] O
io_out[18] O
io_out[19] O
io_out[1] O
io_out[20] O
io_out[21] O
io_out[22] O
io_out[23] O
io_out[24] O
io_out[25] O
io_out[26] O
io_out[27] O
io_out[28] O
io_out[29] O
io_out[2] O
io_out[30] O
io_out[31] O
io_out[32] O
io_out[33] O
io_out[34] O
io_out[35] O
io_out[36] O
io_out[37] O
io_out[3] O
io_out[4] O
io_out[5] O
io_out[6] O
io_out[7] O
io_out[8] O
io_out[9] O
la_data_in[0] I
la_data_in[100] I
la_data_in[101] I
la_data_in[102] I
la_data_in[103] I
la_data_in[104] I
la_data_in[105] I
la_data_in[106] I
la_data_in[107] I
la_data_in[108] I
la_data_in[109] I
la_data_in[10] I
la_data_in[110] I
la_data_in[111] I
la_data_in[112] I
la_data_in[113] I
la_data_in[114] I
la_data_in[115] I
la_data_in[116] I
la_data_in[117] I
la_data_in[118] I
la_data_in[119] I
la_data_in[11] I
la_data_in[120] I
la_data_in[121] I
la_data_in[122] I
la_data_in[123] I
la_data_in[124] I
la_data_in[125] I
la_data_in[126] I
la_data_in[127] I
la_data_in[12] I
la_data_in[13] I
la_data_in[14] I
la_data_in[15] I
la_data_in[16] I
la_data_in[17] I
la_data_in[18] I
la_data_in[19] I
la_data_in[1] I
la_data_in[20] I
la_data_in[21] I
la_data_in[22] I
la_data_in[23] I
la_data_in[24] I
la_data_in[25] I
la_data_in[26] I
la_data_in[27] I
la_data_in[28] I
la_data_in[29] I
la_data_in[2] I
la_data_in[30] I
la_data_in[31] I
la_data_in[32] I
la_data_in[33] I
la_data_in[34] I
la_data_in[35] I
la_data_in[36] I
la_data_in[37] I
la_data_in[38] I
la_data_in[39] I
la_data_in[3] I
la_data_in[40] I
la_data_in[41] I
la_data_in[42] I
la_data_in[43] I
la_data_in[44] I
la_data_in[45] I
la_data_in[46] I
la_data_in[47] I
la_data_in[48] I
la_data_in[49] I
la_data_in[4] I
la_data_in[50] I
la_data_in[51] I
la_data_in[52] I
la_data_in[53] I
la_data_in[54] I
la_data_in[55] I
la_data_in[56] I
la_data_in[57] I
la_data_in[58] I
la_data_in[59] I
la_data_in[5] I
la_data_in[60] I
la_data_in[61] I
la_data_in[62] I
la_data_in[63] I
la_data_in[64] I
la_data_in[65] I
la_data_in[66] I
la_data_in[67] I
la_data_in[68] I
la_data_in[69] I
la_data_in[6] I
la_data_in[70] I
la_data_in[71] I
la_data_in[72] I
la_data_in[73] I
la_data_in[74] I
la_data_in[75] I
la_data_in[76] I
la_data_in[77] I
la_data_in[78] I
la_data_in[79] I
la_data_in[7] I
la_data_in[80] I
la_data_in[81] I
la_data_in[82] I
la_data_in[83] I
la_data_in[84] I
la_data_in[85] I
la_data_in[86] I
la_data_in[87] I
la_data_in[88] I
la_data_in[89] I
la_data_in[8] I
la_data_in[90] I
la_data_in[91] I
la_data_in[92] I
la_data_in[93] I
la_data_in[94] I
la_data_in[95] I
la_data_in[96] I
la_data_in[97] I
la_data_in[98] I
la_data_in[99] I
la_data_in[9] I
la_data_out[0] O
la_data_out[100] O
la_data_out[101] O
la_data_out[102] O
la_data_out[103] O
la_data_out[104] O
la_data_out[105] O
la_data_out[106] O
la_data_out[107] O
la_data_out[108] O
la_data_out[109] O
la_data_out[10] O
la_data_out[110] O
la_data_out[111] O
la_data_out[112] O
la_data_out[113] O
la_data_out[114] O
la_data_out[115] O
la_data_out[116] O
la_data_out[117] O
la_data_out[118] O
la_data_out[119] O
la_data_out[11] O
la_data_out[120] O
la_data_out[121] O
la_data_out[122] O
la_data_out[123] O
la_data_out[124] O
la_data_out[125] O
la_data_out[126] O
la_data_out[127] O
la_data_out[12] O
la_data_out[13] O
la_data_out[14] O
la_data_out[15] O
la_data_out[16] O
la_data_out[17] O
la_data_out[18] O
la_data_out[19] O
la_data_out[1] O
la_data_out[20] O
la_data_out[21] O
la_data_out[22] O
la_data_out[23] O
la_data_out[24] O
la_data_out[25] O
la_data_out[26] O
la_data_out[27] O
la_data_out[28] O
la_data_out[29] O
la_data_out[2] O
la_data_out[30] O
la_data_out[31] O
la_data_out[32] O
la_data_out[33] O
la_data_out[34] O
la_data_out[35] O
la_data_out[36] O
la_data_out[37] O
la_data_out[38] O
la_data_out[39] O
la_data_out[3] O
la_data_out[40] O
la_data_out[41] O
la_data_out[42] O
la_data_out[43] O
la_data_out[44] O
la_data_out[45] O
la_data_out[46] O
la_data_out[47] O
la_data_out[48] O
la_data_out[49] O
la_data_out[4] O
la_data_out[50] O
la_data_out[51] O
la_data_out[52] O
la_data_out[53] O
la_data_out[54] O
la_data_out[55] O
la_data_out[56] O
la_data_out[57] O
la_data_out[58] O
la_data_out[59] O
la_data_out[5] O
la_data_out[60] O
la_data_out[61] O
la_data_out[62] O
la_data_out[63] O
la_data_out[64] O
la_data_out[65] O
la_data_out[66] O
la_data_out[67] O
la_data_out[68] O
la_data_out[69] O
la_data_out[6] O
la_data_out[70] O
la_data_out[71] O
la_data_out[72] O
la_data_out[73] O
la_data_out[74] O
la_data_out[75] O
la_data_out[76] O
la_data_out[77] O
la_data_out[78] O
la_data_out[79] O
la_data_out[7] O
la_data_out[80] O
la_data_out[81] O
la_data_out[82] O
la_data_out[83] O
la_data_out[84] O
la_data_out[85] O
la_data_out[86] O
la_data_out[87] O
la_data_out[88] O
la_data_out[89] O
la_data_out[8] O
la_data_out[90] O
la_data_out[91] O
la_data_out[92] O
la_data_out[93] O
la_data_out[94] O
la_data_out[95] O
la_data_out[96] O
la_data_out[97] O
la_data_out[98] O
la_data_out[99] O
la_data_out[9] O
la_oenb[0] I
la_oenb[100] I
la_oenb[101] I
la_oenb[102] I
la_oenb[103] I
la_oenb[104] I
la_oenb[105] I
la_oenb[106] I
la_oenb[107] I
la_oenb[108] I
la_oenb[109] I
la_oenb[10] I
la_oenb[110] I
la_oenb[111] I
la_oenb[112] I
la_oenb[113] I
la_oenb[114] I
la_oenb[115] I
la_oenb[116] I
la_oenb[117] I
la_oenb[118] I
la_oenb[119] I
la_oenb[11] I
la_oenb[120] I
la_oenb[121] I
la_oenb[122] I
la_oenb[123] I
la_oenb[124] I
la_oenb[125] I
la_oenb[126] I
la_oenb[127] I
la_oenb[12] I
la_oenb[13] I
la_oenb[14] I
la_oenb[15] I
la_oenb[16] I
la_oenb[17] I
la_oenb[18] I
la_oenb[19] I
la_oenb[1] I
la_oenb[20] I
la_oenb[21] I
la_oenb[22] I
la_oenb[23] I
la_oenb[24] I
la_oenb[25] I
la_oenb[26] I
la_oenb[27] I
la_oenb[28] I
la_oenb[29] I
la_oenb[2] I
la_oenb[30] I
la_oenb[31] I
la_oenb[32] I
la_oenb[33] I
la_oenb[34] I
la_oenb[35] I
la_oenb[36] I
la_oenb[37] I
la_oenb[38] I
la_oenb[39] I
la_oenb[3] I
la_oenb[40] I
la_oenb[41] I
la_oenb[42] I
la_oenb[43] I
la_oenb[44] I
la_oenb[45] I
la_oenb[46] I
la_oenb[47] I
la_oenb[48] I
la_oenb[49] I
la_oenb[4] I
la_oenb[50] I
la_oenb[51] I
la_oenb[52] I
la_oenb[53] I
la_oenb[54] I
la_oenb[55] I
la_oenb[56] I
la_oenb[57] I
la_oenb[58] I
la_oenb[59] I
la_oenb[5] I
la_oenb[60] I
la_oenb[61] I
la_oenb[62] I
la_oenb[63] I
la_oenb[64] I
la_oenb[65] I
la_oenb[66] I
la_oenb[67] I
la_oenb[68] I
la_oenb[69] I
la_oenb[6] I
la_oenb[70] I
la_oenb[71] I
la_oenb[72] I
la_oenb[73] I
la_oenb[74] I
la_oenb[75] I
la_oenb[76] I
la_oenb[77] I
la_oenb[78] I
la_oenb[79] I
la_oenb[7] I
la_oenb[80] I
la_oenb[81] I
la_oenb[82] I
la_oenb[83] I
la_oenb[84] I
la_oenb[85] I
la_oenb[86] I
la_oenb[87] I
la_oenb[88] I
la_oenb[89] I
la_oenb[8] I
la_oenb[90] I
la_oenb[91] I
la_oenb[92] I
la_oenb[93] I
la_oenb[94] I
la_oenb[95] I
la_oenb[96] I
la_oenb[97] I
la_oenb[98] I
la_oenb[99] I
la_oenb[9] I
wb_clk_i I
wb_rst_i I
wbs_ack_o O
wbs_adr_i[0] I
wbs_adr_i[10] I
wbs_adr_i[11] I
wbs_adr_i[12] I
wbs_adr_i[13] I
wbs_adr_i[14] I
wbs_adr_i[15] I
wbs_adr_i[16] I
wbs_adr_i[17] I
wbs_adr_i[18] I
wbs_adr_i[19] I
wbs_adr_i[1] I
wbs_adr_i[20] I
wbs_adr_i[21] I
wbs_adr_i[22] I
wbs_adr_i[23] I
wbs_adr_i[24] I
wbs_adr_i[25] I
wbs_adr_i[26] I
wbs_adr_i[27] I
wbs_adr_i[28] I
wbs_adr_i[29] I
wbs_adr_i[2] I
wbs_adr_i[30] I
wbs_adr_i[31] I
wbs_adr_i[3] I
wbs_adr_i[4] I
wbs_adr_i[5] I
wbs_adr_i[6] I
wbs_adr_i[7] I
wbs_adr_i[8] I
wbs_adr_i[9] I
wbs_cyc_i I
wbs_dat_i[0] I
wbs_dat_i[10] I
wbs_dat_i[11] I
wbs_dat_i[12] I
wbs_dat_i[13] I
wbs_dat_i[14] I
wbs_dat_i[15] I
wbs_dat_i[16] I
wbs_dat_i[17] I
wbs_dat_i[18] I
wbs_dat_i[19] I
wbs_dat_i[1] I
wbs_dat_i[20] I
wbs_dat_i[21] I
wbs_dat_i[22] I
wbs_dat_i[23] I
wbs_dat_i[24] I
wbs_dat_i[25] I
wbs_dat_i[26] I
wbs_dat_i[27] I
wbs_dat_i[28] I
wbs_dat_i[29] I
wbs_dat_i[2] I
wbs_dat_i[30] I
wbs_dat_i[31] I
wbs_dat_i[3] I
wbs_dat_i[4] I
wbs_dat_i[5] I
wbs_dat_i[6] I
wbs_dat_i[7] I
wbs_dat_i[8] I
wbs_dat_i[9] I
wbs_dat_o[0] O
wbs_dat_o[10] O
wbs_dat_o[11] O
wbs_dat_o[12] O
wbs_dat_o[13] O
wbs_dat_o[14] O
wbs_dat_o[15] O
wbs_dat_o[16] O
wbs_dat_o[17] O
wbs_dat_o[18] O
wbs_dat_o[19] O
wbs_dat_o[1] O
wbs_dat_o[20] O
wbs_dat_o[21] O
wbs_dat_o[22] O
wbs_dat_o[23] O
wbs_dat_o[24] O
wbs_dat_o[25] O
wbs_dat_o[26] O
wbs_dat_o[27] O
wbs_dat_o[28] O
wbs_dat_o[29] O
wbs_dat_o[2] O
wbs_dat_o[30] O
wbs_dat_o[31] O
wbs_dat_o[3] O
wbs_dat_o[4] O
wbs_dat_o[5] O
wbs_dat_o[6] O
wbs_dat_o[7] O
wbs_dat_o[8] O
wbs_dat_o[9] O
wbs_sel_i[0] I
wbs_sel_i[1] I
wbs_sel_i[2] I
wbs_sel_i[3] I
wbs_stb_i I
wbs_we_i I

*D_NET *1 0.377053
*CONN
*P io_in[0] I
*I *613:Data_In[0] I *D user_proj_IMPACT_HEAD
*CAP
1 io_in[0] 0.0233046
2 *613:Data_In[0] 0.000161502
3 *1:13 0.0704151
4 *1:11 0.0708106
5 *1:5 0.0238617
6 *1:11 *23:15 0.00128948
7 *1:11 *81:15 0
8 *1:13 *12:13 0.187108
9 *1:13 *23:17 8.85905e-05
10 *1:13 *34:13 1.26484e-05
*RES
1 io_in[0] *1:5 57.6156 
2 *1:5 *1:11 15.895 
3 *1:11 *1:13 294.693 
4 *1:13 *613:Data_In[0] 3.395 
*END

*D_NET *8 0.282809
*CONN
*P io_in[16] I
*I *613:Word_Select[0] I *D user_proj_IMPACT_HEAD
*CAP
1 io_in[16] 0.138031
2 *613:Word_Select[0] 0.000791771
3 *8:5 0.138823
4 *8:5 *613:Word_Select[9] 0.00193072
5 *8:5 *15:13 0
6 *8:5 *16:21 0
7 *8:5 *17:17 0.00323308
*RES
1 io_in[16] *8:5 2512.82 
2 *8:5 *613:Word_Select[0] 2.3544 
*END

*D_NET *9 0.491685
*CONN
*P io_in[17] I
*I *613:Word_Select[1] I *D user_proj_IMPACT_HEAD
*CAP
1 io_in[17] 0.000631275
2 *613:Word_Select[1] 0.00010505
3 *9:13 0.0453751
4 *9:11 0.0517478
5 *9:7 0.00710899
6 *9:11 *45:13 0.0263307
7 *9:11 *46:13 0.0138882
8 *9:13 *10:13 0.183281
9 *9:13 *11:13 0.163217
10 *9:13 *39:25 0
*RES
1 io_in[17] *9:7 11.7725 
2 *9:7 *9:11 39.5184 
3 *9:11 *9:13 2276.24 
4 *9:13 *613:Word_Select[1] 0.7584 
*END

*D_NET *10 0.418302
*CONN
*P io_in[18] I
*I *613:Word_Select[2] I *D user_proj_IMPACT_HEAD
*CAP
1 io_in[18] 0.000701217
2 *613:Word_Select[2] 0.000192242
3 *10:13 0.0705985
4 *10:11 0.0704063
5 *10:9 0.0192062
6 *10:7 0.0199074
7 *10:9 *45:13 0.0540089
8 *9:13 *10:13 0.183281
*RES
1 io_in[18] *10:7 12.7925 
2 *10:7 *10:9 80.0381 
3 *10:9 *10:11 0.5 
4 *10:11 *10:13 2049.79 
5 *10:13 *613:Word_Select[2] 0.930667 
*END

*D_NET *11 0.453962
*CONN
*P io_in[19] I
*I *613:Word_Select[3] I *D user_proj_IMPACT_HEAD
*CAP
1 io_in[19] 0.000724992
2 *613:Word_Select[3] 0.000157278
3 *11:13 0.0299206
4 *11:11 0.0297633
5 *11:9 0.0415945
6 *11:7 0.0423195
7 *11:9 io_oeb[18] 0.00320824
8 *11:9 *13:17 0
9 *11:13 *13:21 0.143056
10 *11:13 *39:25 0
11 *9:13 *11:13 0.163217
*RES
1 io_in[19] *11:7 14.42 
2 *11:7 *11:9 717.705 
3 *11:9 *11:11 2 
4 *11:11 *11:13 1825.27 
5 *11:13 *613:Word_Select[3] 0.930667 
*END

*D_NET *12 0.486855
*CONN
*P io_in[1] I
*I *613:Data_In[1] I *D user_proj_IMPACT_HEAD
*CAP
1 io_in[1] 0.0235149
2 *613:Data_In[1] 0.00019607
3 *12:13 0.0273959
4 *12:11 0.0271999
5 *12:9 0.00556194
6 *12:7 0.00556194
7 *12:5 0.0235149
8 *12:9 *33:9 0.00809941
9 *12:9 *39:25 0.00445516
10 *12:13 *23:17 0.174247
11 *1:13 *12:13 0.187108
*RES
1 io_in[1] *12:5 57.9652 
2 *12:5 *12:7 0.5 
3 *12:7 *12:9 164.325 
4 *12:9 *12:11 0.5 
5 *12:11 *12:13 275.348 
6 *12:13 *613:Data_In[1] 3.905 
*END

*D_NET *13 0.498014
*CONN
*P io_in[20] I
*I *613:Word_Select[4] I *D user_proj_IMPACT_HEAD
*CAP
1 io_in[20] 0.00599961
2 *613:Word_Select[4] 9.6124e-05
3 *13:21 0.0267751
4 *13:19 0.0266789
5 *13:17 0.0297777
6 *13:15 0.0357773
7 *13:15 *45:9 3.55787e-05
8 *13:15 *48:17 0.000163727
9 *13:15 *54:13 0.0144765
10 *13:17 *14:17 0.0923147
11 *13:21 *14:21 0.122863
12 *13:21 *39:25 0
13 *11:9 *13:17 0
14 *11:13 *13:21 0.143056
*RES
1 io_in[20] *13:15 39.0451 
2 *13:15 *13:17 834.66 
3 *13:17 *13:19 2 
4 *13:19 *13:21 1599.85 
5 *13:21 *613:Word_Select[4] 0.7584 
*END

*D_NET *14 0.44682
*CONN
*P io_in[21] I
*I *613:Word_Select[5] I *D user_proj_IMPACT_HEAD
*CAP
1 io_in[21] 0.000540524
2 *613:Word_Select[5] 0.000215979
3 *14:21 0.0308016
4 *14:19 0.0305856
5 *14:17 0.032506
6 *14:15 0.0328316
7 *14:9 0.013357
8 *14:7 0.0135718
9 *14:9 *52:13 0.0369862
10 *14:17 *48:17 0.000975278
11 *14:21 *39:25 0.0392608
12 *14:21 *40:15 0
13 *14:21 *42:27 1.00941e-05
14 *14:21 *50:23 0
15 *13:17 *14:17 0.0923147
16 *13:21 *14:21 0.122863
*RES
1 io_in[21] *14:7 10.2425 
2 *14:7 *14:9 54.7504 
3 *14:9 *14:15 7.5775 
4 *14:15 *14:17 881.235 
5 *14:17 *14:19 2 
6 *14:19 *14:21 1374.17 
7 *14:21 *613:Word_Select[5] 0.930667 
*END

*D_NET *15 0.513845
*CONN
*P io_in[22] I
*I *613:Word_Select[6] I *D user_proj_IMPACT_HEAD
*CAP
1 io_in[22] 0.0209563
2 *613:Word_Select[6] 0.000631724
3 *15:13 0.0323166
4 *15:11 0.0316848
5 *15:9 0.0339861
6 *15:7 0.0339861
7 *15:5 0.0209563
8 *15:9 *16:17 0.127133
9 *15:9 *62:6 0.0225188
10 *15:9 *71:19 0.132384
11 *15:13 *16:21 0.050318
12 *15:13 *17:17 0.00697383
13 *15:13 *73:15 0
14 *15:13 *76:17 0
15 *8:5 *15:13 0
*RES
1 io_in[22] *15:5 378.983 
2 *15:5 *15:7 0.5 
3 *15:7 *15:9 246.156 
4 *15:9 *15:11 0.5 
5 *15:11 *15:13 787.545 
6 *15:13 *613:Word_Select[6] 1.88827 
*END

*D_NET *16 0.560514
*CONN
*P io_in[23] I
*I *613:Word_Select[7] I *D user_proj_IMPACT_HEAD
*CAP
1 io_in[23] 0.00065289
2 *613:Word_Select[7] 0.000670014
3 *16:21 0.0200599
4 *16:19 0.0193899
5 *16:17 0.0209837
6 *16:15 0.0209837
7 *16:13 0.0210854
8 *16:11 0.0210854
9 *16:9 0.0127587
10 *16:7 0.0134116
11 *16:9 *53:13 0.0528756
12 *16:9 *54:13 0.0667648
13 *16:17 *62:6 0.0895253
14 *16:17 *71:19 1.57264e-05
15 *16:17 *74:9 0.015826
16 *16:21 *17:17 0.00697383
17 *8:5 *16:21 0
18 *15:9 *16:17 0.127133
19 *15:13 *16:21 0.050318
*RES
1 io_in[23] *16:7 12.2825 
2 *16:7 *16:9 98.9165 
3 *16:9 *16:11 0.5 
4 *16:11 *16:13 366.795 
5 *16:13 *16:15 0.5 
6 *16:15 *16:17 188.472 
7 *16:17 *16:19 0.5 
8 *16:19 *16:21 563.655 
9 *16:21 *613:Word_Select[7] 1.94653 
*END

*D_NET *17 0.50219
*CONN
*P io_in[24] I
*I *613:Word_Select[8] I *D user_proj_IMPACT_HEAD
*CAP
1 io_in[24] 0.000809209
2 *613:Word_Select[8] 0.000675663
3 *17:17 0.0201419
4 *17:15 0.0194662
5 *17:13 0.0666995
6 *17:11 0.0824849
7 *17:7 0.0165946
8 *17:11 *18:11 0.00887696
9 *17:13 io_oeb[25] 2.64282e-05
10 *17:13 *18:13 0.209689
11 *17:13 *51:11 0.0379362
12 *17:17 *613:Word_Select[9] 0.0118867
13 *17:17 *73:15 0.00486065
14 *17:17 *76:17 0.00486065
15 *8:5 *17:17 0.00323308
16 *15:13 *17:17 0.00697383
17 *16:21 *17:17 0.00697383
*RES
1 io_in[24] *17:7 2.50007 
2 *17:7 *17:11 49.7201 
3 *17:11 *17:13 310.832 
4 *17:13 *17:15 0.5 
5 *17:15 *17:17 59.8145 
6 *17:17 *613:Word_Select[8] 1.9174 
*END

*D_NET *18 0.422214
*CONN
*P io_in[25] I
*I *613:Word_Select[9] I *D user_proj_IMPACT_HEAD
*CAP
1 io_in[25] 0.00468678
2 *613:Word_Select[9] 0.00608983
3 *18:13 0.0591506
4 *18:11 0.0577476
5 *18:13 io_oeb[25] 0.062156
6 *18:13 *41:11 0
7 *18:13 *42:11 0
8 *18:13 *59:11 0
9 *8:5 *613:Word_Select[9] 0.00193072
10 *17:11 *18:11 0.00887696
11 *17:13 *18:13 0.209689
12 *17:17 *613:Word_Select[9] 0.0118867
*RES
1 io_in[25] *18:11 19.3477 
2 *18:11 *18:13 310.832 
3 *18:13 *613:Word_Select[9] 24.3637 
*END

*D_NET *19 0.430388
*CONN
*P io_in[26] I
*I *613:Bank_Select[0] I *D user_proj_IMPACT_HEAD
*CAP
1 io_in[26] 0.000955865
2 *613:Bank_Select[0] 0.00208309
3 *19:9 0.0532094
4 *19:7 0.0520822
5 *19:9 *20:9 0.104118
6 *19:9 *25:9 0.0201819
7 *19:9 *31:9 0.000563818
8 *19:9 *60:23 0.00282067
9 *19:9 *62:10 0.00208898
10 *19:9 *63:15 0.020319
11 *19:9 *67:23 0.171965
*RES
1 io_in[26] *19:7 2.6166 
2 *19:7 *19:9 317.87 
3 *19:9 *613:Bank_Select[0] 5.87953 
*END

*D_NET *20 0.245396
*CONN
*P io_in[27] I
*I *613:Bank_Select[1] I *D user_proj_IMPACT_HEAD
*CAP
1 io_in[27] 0.000983507
2 *613:Bank_Select[1] 0.0020596
3 *20:9 0.038996
4 *20:7 0.0379199
5 *20:9 *21:9 0.0339668
6 *20:9 *24:9 0.011304
7 *20:9 *60:23 0.00392897
8 *20:9 *62:10 0.0121197
9 *19:9 *20:9 0.104118
*RES
1 io_in[27] *20:7 2.73313 
2 *20:7 *20:9 189.962 
3 *20:9 *613:Bank_Select[1] 5.763 
*END

*D_NET *21 0.0764951
*CONN
*P io_in[28] I
*I *613:Byte_Select[0] I *D user_proj_IMPACT_HEAD
*CAP
1 io_in[28] 0.00104864
2 *613:Byte_Select[0] 0.0021443
3 *21:9 0.0168262
4 *21:7 0.0157305
5 *21:9 *60:23 0.00677869
6 *20:9 *21:9 0.0339668
*RES
1 io_in[28] *21:7 2.84967 
2 *21:7 *21:9 61.9679 
3 *21:9 *613:Byte_Select[0] 5.64647 
*END

*D_NET *22 0.0620601
*CONN
*P io_in[29] I
*I *613:Byte_Select[1] I *D user_proj_IMPACT_HEAD
*CAP
1 io_in[29] 0.00229849
2 *613:Byte_Select[1] 0.000789184
3 *22:9 0.0287315
4 *22:7 0.0302408
*RES
1 io_in[29] *22:7 5.99607 
2 *22:7 *22:9 66.0161 
3 *22:9 *613:Byte_Select[1] 2.50007 
*END

*D_NET *23 0.466848
*CONN
*P io_in[2] I
*I *613:Data_In[2] I *D user_proj_IMPACT_HEAD
*CAP
1 io_in[2] 0.0233092
2 *613:Data_In[2] 0.000230638
3 *23:17 0.0264781
4 *23:15 0.0266132
5 *23:9 0.0123657
6 *23:7 0.012
7 *23:5 0.0233092
8 *23:9 *32:9 0.0146602
9 *23:9 *81:15 0
10 *23:15 *32:9 0.00147479
11 *23:15 *81:15 0
12 *23:17 *32:13 0.0149735
13 *23:17 *34:13 0.135808
14 *1:11 *23:15 0.00128948
15 *1:13 *23:17 8.85905e-05
16 *12:13 *23:17 0.174247
*RES
1 io_in[2] *23:5 57.6156 
2 *23:5 *23:7 0.5 
3 *23:7 *23:9 297.315 
4 *23:9 *23:15 18.005 
5 *23:15 *23:17 256.644 
6 *23:17 *613:Data_In[2] 4.415 
*END

*D_NET *24 0.178113
*CONN
*P io_in[30] I
*I *613:WriteEnable I *D user_proj_IMPACT_HEAD
*CAP
1 io_in[30] 0.00101558
2 *613:WriteEnable 0.0013795
3 *24:9 0.0173646
4 *24:7 0.0170006
5 *613:WriteEnable *58:13 0.00601296
6 *613:WriteEnable *66:19 0.00545713
7 *613:WriteEnable *67:19 0.000321296
8 *24:9 *25:9 0.000116217
9 *24:9 *60:23 0.040372
10 *24:9 *62:10 0.0776156
11 *24:9 *63:15 0.000153657
12 *24:9 *69:21 0
13 *20:9 *24:9 0.011304
*RES
1 io_in[30] *24:7 2.82053 
2 *24:7 *24:9 874.245 
3 *24:9 *613:WriteEnable 16.2378 
*END

*D_NET *25 0.264149
*CONN
*P io_in[31] I
*I *613:ReadEnable I *D user_proj_IMPACT_HEAD
*CAP
1 io_in[31] 0.000907883
2 *613:ReadEnable 0.00346698
3 *25:9 0.0183098
4 *25:7 0.0157507